&HEAD CHID='fcd1265c' TITLE='shkola_800:_Scenarij_1' FYI='Fajl sgenerirovan Fenix+ 3 Ultimate 3.2.3.0 dlya FDS6'/
&DUMP DT_RESTART=350/
&TIME T_END=350/
&MISC VISIBILITY_FACTOR=2.38 MAX_LEAK_PATHS=0 BNDF_DEFAULT=.False./
&COMB /
&WIND /
&DEVC ID='CLOCK' QUANTITY='TIME' XYZ=1.275,4.25,2.4/
ComputationAreas
&MESH IJK=95,48,11 XB=1.275,41.65,24.65,45.05,0,4.8 MPI_PROCESS=0/
&MESH IJK=48,48,11 XB=-39.1,-18.7,-36.55,-16.15,0,4.8 MPI_PROCESS=1/
&MESH IJK=48,48,11 XB=-39.1,-18.7,-16.15,4.25,0,4.8 MPI_PROCESS=2/
&MESH IJK=48,48,11 XB=1.275,21.675,-36.55,-16.15,0,4.8 MPI_PROCESS=3/
&MESH IJK=48,48,11 XB=1.275,21.675,-16.15,4.25,0,4.8 MPI_PROCESS=4/
&MESH IJK=48,48,11 XB=-39.1,-18.7,4.25,24.65,0,4.8 MPI_PROCESS=5/
&MESH IJK=48,48,11 XB=-39.1,-18.7,24.65,45.05,0,4.8 MPI_PROCESS=6/
&MESH IJK=48,48,11 XB=1.275,21.675,4.25,24.65,0,4.8 MPI_PROCESS=7/
&MESH IJK=47,48,11 XB=-18.7,1.275,-36.55,-16.15,0,4.8 MPI_PROCESS=8/
&MESH IJK=47,48,11 XB=-18.7,1.275,-16.15,4.25,0,4.8 MPI_PROCESS=9/
&MESH IJK=47,48,11 XB=21.675,41.65,-36.55,-16.15,0,4.8 MPI_PROCESS=10/
&MESH IJK=47,48,11 XB=21.675,41.65,-16.15,4.25,0,4.8 MPI_PROCESS=11/
&MESH IJK=47,48,11 XB=-18.7,1.275,4.25,24.65,0,4.8 MPI_PROCESS=12/
&MESH IJK=47,48,11 XB=-18.7,1.275,24.65,45.05,0,4.8 MPI_PROCESS=13/
&MESH IJK=47,48,11 XB=21.675,41.65,4.25,24.65,0,4.8 MPI_PROCESS=14/
&VENT XB=-39.1,-39.1,-36.55,45.05,0,4.8 SURF_ID='OPEN'/
&VENT XB=41.65,41.65,-36.55,45.05,0,4.8 SURF_ID='OPEN'/
&VENT XB=-39.1,41.65,-36.55,-36.55,0,4.8 SURF_ID='OPEN'/
&VENT XB=-39.1,41.65,45.05,45.05,0,4.8 SURF_ID='OPEN'/
&SPEC ID='OXYGEN' LUMPED_COMPONENT_ONLY=.True./
&SPEC ID='NITROGEN' LUMPED_COMPONENT_ONLY=.True./
&SPEC ID='CARBON DIOXIDE' LUMPED_COMPONENT_ONLY=.True./
&SPEC ID='CARBON MONOXIDE' LUMPED_COMPONENT_ONLY=.True./
&SPEC ID='HYDROGEN CHLORIDE' LUMPED_COMPONENT_ONLY=.True./
&SPEC ID='WATER VAPOR' LUMPED_COMPONENT_ONLY=.True./
&SPEC ID='SOOT' LUMPED_COMPONENT_ONLY=.True./
&SPEC ID='SPEC_1' MW=87.16459/
&SPEC ID='AIR' BACKGROUND=.True. SPEC_ID(1:2)='OXYGEN','NITROGEN' VOLUME_FRACTION(1:2)=1,3.7619/
&SPEC ID='PRODUCTS' SPEC_ID(1:6)='SOOT','CARBON DIOXIDE','CARBON MONOXIDE','HYDROGEN CHLORIDE','WATER VAPOR','NITROGEN' VOLUME_FRACTION(1:6)=0.0684016175615057,2.54505273066043,0.00684617684335293,0.0143437755581727,5.48852455992658,14.725512362991/
&REAC FUEL='SPEC_1' HEAT_OF_COMBUSTION=13800 SPEC_ID_NU(1:3)='SPEC_1','AIR','PRODUCTS' NU(1:3)=-1,-3.91438165899971,1/
d06b700cef9e4a97bf9799641b201823
&OBST XB=30.6,31.025,10.2,10.625,0,0 RGB=127,127,127/
&OBST XB=30.6,31.025,10.625,11.05,0,0 RGB=127,127,127/
&OBST XB=30.6,31.025,11.05,11.475,0,0 RGB=127,127,127/
&OBST XB=31.025,31.45,10.2,10.625,0.436363636363636,0.436363636363636 RGB=127,127,127/
&OBST XB=31.025,31.45,10.625,11.05,0.436363636363636,0.436363636363636 RGB=127,127,127/
&OBST XB=31.025,31.45,11.05,11.475,0.436363636363636,0.436363636363636 RGB=127,127,127/
&OBST XB=31.45,31.875,10.2,10.625,0.436363636363636,0.436363636363636 RGB=127,127,127/
&OBST XB=31.45,31.875,10.625,11.05,0.436363636363636,0.436363636363636 RGB=127,127,127/
&OBST XB=31.45,31.875,11.05,11.475,0.436363636363636,0.436363636363636 RGB=127,127,127/
&OBST XB=31.875,32.3,10.2,10.625,0.872727272727273,0.872727272727273 RGB=127,127,127/
&OBST XB=31.875,32.3,10.625,11.05,0.872727272727273,0.872727272727273 RGB=127,127,127/
&OBST XB=31.875,32.3,11.05,11.475,0.872727272727273,0.872727272727273 RGB=127,127,127/
&OBST XB=32.3,32.725,10.2,10.625,0.872727272727273,0.872727272727273 RGB=127,127,127/
&OBST XB=32.3,32.725,10.625,11.05,0.872727272727273,0.872727272727273 RGB=127,127,127/
&OBST XB=32.3,32.725,11.05,11.475,0.872727272727273,0.872727272727273 RGB=127,127,127/
&OBST XB=32.725,33.15,10.2,10.625,1.30909090909091,1.30909090909091 RGB=127,127,127/
&OBST XB=32.725,33.15,10.625,11.05,1.30909090909091,1.30909090909091 RGB=127,127,127/
&OBST XB=32.725,33.15,11.05,11.475,1.30909090909091,1.30909090909091 RGB=127,127,127/
&OBST XB=33.15,33.575,10.2,10.625,1.30909090909091,1.30909090909091 RGB=127,127,127/
&OBST XB=33.15,33.575,10.625,11.05,1.30909090909091,1.30909090909091 RGB=127,127,127/
&OBST XB=33.15,33.575,11.05,11.475,1.30909090909091,1.30909090909091 RGB=127,127,127/
&OBST XB=33.575,34,10.2,10.625,1.74545454545455,1.74545454545455 RGB=127,127,127/
&OBST XB=33.575,34,10.625,11.05,1.74545454545455,1.74545454545455 RGB=127,127,127/
&OBST XB=33.575,34,11.05,11.475,1.74545454545455,1.74545454545455 RGB=127,127,127/
&OBST XB=34,34.425,10.2,10.625,1.74545454545455,2.18181818181818 RGB=127,127,127/
&OBST XB=34,34.425,10.625,11.05,1.74545454545455,2.18181818181818 RGB=127,127,127/
&OBST XB=34,34.425,11.05,11.475,1.74545454545455,2.18181818181818 RGB=127,127,127/
&OBST XB=34.425,34.85,10.2,10.625,2.18181818181818,2.18181818181818 RGB=127,127,127/
&OBST XB=34.425,34.85,10.625,11.05,2.18181818181818,2.18181818181818 RGB=127,127,127/
&OBST XB=34.425,34.85,11.05,11.475,2.18181818181818,2.18181818181818 RGB=127,127,127/
&OBST XB=31.025,31.025,10.2,10.625,0,0.436363636363636 RGB=127,127,127/
&OBST XB=31.875,31.875,10.2,10.625,0.436363636363636,0.872727272727273 RGB=127,127,127/
&OBST XB=32.725,32.725,10.2,10.625,0.872727272727273,1.30909090909091 RGB=127,127,127/
&OBST XB=33.575,33.575,10.2,10.625,1.30909090909091,1.74545454545455 RGB=127,127,127/
&OBST XB=34.85,34.85,10.2,10.625,2.18181818181818,2.61818181818182 RGB=127,127,127/
&OBST XB=31.025,31.025,10.625,11.05,0,0.436363636363636 RGB=127,127,127/
&OBST XB=31.875,31.875,10.625,11.05,0.436363636363636,0.872727272727273 RGB=127,127,127/
&OBST XB=32.725,32.725,10.625,11.05,0.872727272727273,1.30909090909091 RGB=127,127,127/
&OBST XB=33.575,33.575,10.625,11.05,1.30909090909091,1.74545454545455 RGB=127,127,127/
&OBST XB=34.85,34.85,10.625,11.05,2.18181818181818,2.61818181818182 RGB=127,127,127/
&OBST XB=31.025,31.025,11.05,11.475,0,0.436363636363636 RGB=127,127,127/
&OBST XB=31.875,31.875,11.05,11.475,0.436363636363636,0.872727272727273 RGB=127,127,127/
&OBST XB=32.725,32.725,11.05,11.475,0.872727272727273,1.30909090909091 RGB=127,127,127/
&OBST XB=33.575,33.575,11.05,11.475,1.30909090909091,1.74545454545455 RGB=127,127,127/
&OBST XB=34.85,34.85,11.05,11.475,2.18181818181818,2.61818181818182 RGB=127,127,127/
91ad7e8c651647c0b541684c5e0dc53b
&OBST XB=30.6,31.025,11.9,12.325,4.36363636363636,4.8 RGB=127,127,127/
&OBST XB=30.6,31.025,12.325,12.75,4.36363636363636,4.8 RGB=127,127,127/
&OBST XB=30.6,31.025,12.75,13.175,4.36363636363636,4.8 RGB=127,127,127/
&OBST XB=30.6,31.025,13.175,13.6,4.36363636363636,4.8 RGB=127,127,127/
&OBST XB=31.025,31.45,11.9,12.325,4.36363636363636,4.36363636363636 RGB=127,127,127/
&OBST XB=31.025,31.45,12.325,12.75,4.36363636363636,4.36363636363636 RGB=127,127,127/
&OBST XB=31.025,31.45,12.75,13.175,4.36363636363636,4.36363636363636 RGB=127,127,127/
&OBST XB=31.025,31.45,13.175,13.6,4.36363636363636,4.36363636363636 RGB=127,127,127/
&OBST XB=31.45,31.875,11.9,12.325,3.92727272727273,4.36363636363636 RGB=127,127,127/
&OBST XB=31.45,31.875,12.325,12.75,3.92727272727273,4.36363636363636 RGB=127,127,127/
&OBST XB=31.45,31.875,12.75,13.175,3.92727272727273,4.36363636363636 RGB=127,127,127/
&OBST XB=31.45,31.875,13.175,13.6,3.92727272727273,4.36363636363636 RGB=127,127,127/
&OBST XB=31.875,32.3,11.9,12.325,3.92727272727273,3.92727272727273 RGB=127,127,127/
&OBST XB=31.875,32.3,12.325,12.75,3.92727272727273,3.92727272727273 RGB=127,127,127/
&OBST XB=31.875,32.3,12.75,13.175,3.92727272727273,3.92727272727273 RGB=127,127,127/
&OBST XB=31.875,32.3,13.175,13.6,3.92727272727273,3.92727272727273 RGB=127,127,127/
&OBST XB=32.3,32.725,11.9,12.325,3.49090909090909,3.92727272727273 RGB=127,127,127/
&OBST XB=32.3,32.725,12.325,12.75,3.49090909090909,3.92727272727273 RGB=127,127,127/
&OBST XB=32.3,32.725,12.75,13.175,3.49090909090909,3.92727272727273 RGB=127,127,127/
&OBST XB=32.3,32.725,13.175,13.6,3.49090909090909,3.92727272727273 RGB=127,127,127/
&OBST XB=32.725,33.15,11.9,12.325,3.49090909090909,3.49090909090909 RGB=127,127,127/
&OBST XB=32.725,33.15,12.325,12.75,3.49090909090909,3.49090909090909 RGB=127,127,127/
&OBST XB=32.725,33.15,12.75,13.175,3.49090909090909,3.49090909090909 RGB=127,127,127/
&OBST XB=32.725,33.15,13.175,13.6,3.49090909090909,3.49090909090909 RGB=127,127,127/
&OBST XB=33.15,33.575,11.9,12.325,3.05454545454545,3.49090909090909 RGB=127,127,127/
&OBST XB=33.15,33.575,12.325,12.75,3.05454545454545,3.49090909090909 RGB=127,127,127/
&OBST XB=33.15,33.575,12.75,13.175,3.05454545454545,3.49090909090909 RGB=127,127,127/
&OBST XB=33.15,33.575,13.175,13.6,3.05454545454545,3.49090909090909 RGB=127,127,127/
&OBST XB=33.575,34,11.9,12.325,3.05454545454545,3.05454545454545 RGB=127,127,127/
&OBST XB=33.575,34,12.325,12.75,3.05454545454545,3.05454545454545 RGB=127,127,127/
&OBST XB=33.575,34,12.75,13.175,3.05454545454545,3.05454545454545 RGB=127,127,127/
&OBST XB=33.575,34,13.175,13.6,3.05454545454545,3.05454545454545 RGB=127,127,127/
&OBST XB=34,34.425,11.9,12.325,2.61818181818182,2.61818181818182 RGB=127,127,127/
&OBST XB=34,34.425,12.325,12.75,2.61818181818182,2.61818181818182 RGB=127,127,127/
&OBST XB=34,34.425,12.75,13.175,2.61818181818182,2.61818181818182 RGB=127,127,127/
&OBST XB=34,34.425,13.175,13.6,2.61818181818182,2.61818181818182 RGB=127,127,127/
&OBST XB=34.425,34.85,11.9,12.325,2.61818181818182,2.61818181818182 RGB=127,127,127/
&OBST XB=34.425,34.85,12.325,12.75,2.61818181818182,2.61818181818182 RGB=127,127,127/
&OBST XB=34.425,34.85,12.75,13.175,2.61818181818182,2.61818181818182 RGB=127,127,127/
&OBST XB=34.425,34.85,13.175,13.6,2.61818181818182,2.61818181818182 RGB=127,127,127/
&OBST XB=34.85,34.85,11.9,12.325,2.18181818181818,2.61818181818182 RGB=127,127,127/
&OBST XB=34,34,11.9,12.325,2.61818181818182,3.05454545454545 RGB=127,127,127/
&OBST XB=34.85,34.85,12.325,12.75,2.18181818181818,2.61818181818182 RGB=127,127,127/
&OBST XB=34,34,12.325,12.75,2.61818181818182,3.05454545454545 RGB=127,127,127/
&OBST XB=34.85,34.85,12.75,13.175,2.18181818181818,2.61818181818182 RGB=127,127,127/
&OBST XB=34,34,12.75,13.175,2.61818181818182,3.05454545454545 RGB=127,127,127/
&OBST XB=34.85,34.85,13.175,13.6,2.18181818181818,2.61818181818182 RGB=127,127,127/
&OBST XB=34,34,13.175,13.6,2.61818181818182,3.05454545454545 RGB=127,127,127/
e908c9b5a4bf43638aa9a7168e372df8
&OBST XB=15.725,16.15,37.825,38.25,0,0 RGB=127,127,127/
&OBST XB=15.725,16.15,38.25,38.675,0.436363636363636,0.436363636363636 RGB=127,127,127/
&OBST XB=15.725,16.15,38.675,39.1,0.436363636363636,0.436363636363636 RGB=127,127,127/
&OBST XB=15.725,16.15,39.1,39.525,0.872727272727273,0.872727272727273 RGB=127,127,127/
&OBST XB=15.725,16.15,39.525,39.95,0.872727272727273,0.872727272727273 RGB=127,127,127/
&OBST XB=15.725,16.15,39.95,40.375,1.30909090909091,1.30909090909091 RGB=127,127,127/
&OBST XB=15.725,16.15,40.375,40.8,1.30909090909091,1.74545454545455 RGB=127,127,127/
&OBST XB=15.725,16.15,40.8,41.225,1.74545454545455,1.74545454545455 RGB=127,127,127/
&OBST XB=15.725,16.15,41.225,41.65,1.74545454545455,2.18181818181818 RGB=127,127,127/
&OBST XB=15.725,16.15,41.65,42.075,2.18181818181818,2.18181818181818 RGB=127,127,127/
&OBST XB=16.15,16.575,37.825,38.25,0,0 RGB=127,127,127/
&OBST XB=16.15,16.575,38.25,38.675,0.436363636363636,0.436363636363636 RGB=127,127,127/
&OBST XB=16.15,16.575,38.675,39.1,0.436363636363636,0.436363636363636 RGB=127,127,127/
&OBST XB=16.15,16.575,39.1,39.525,0.872727272727273,0.872727272727273 RGB=127,127,127/
&OBST XB=16.15,16.575,39.525,39.95,0.872727272727273,0.872727272727273 RGB=127,127,127/
&OBST XB=16.15,16.575,39.95,40.375,1.30909090909091,1.30909090909091 RGB=127,127,127/
&OBST XB=16.15,16.575,40.375,40.8,1.30909090909091,1.74545454545455 RGB=127,127,127/
&OBST XB=16.15,16.575,40.8,41.225,1.74545454545455,1.74545454545455 RGB=127,127,127/
&OBST XB=16.15,16.575,41.225,41.65,1.74545454545455,2.18181818181818 RGB=127,127,127/
&OBST XB=16.15,16.575,41.65,42.075,2.18181818181818,2.18181818181818 RGB=127,127,127/
&OBST XB=16.575,17,37.825,38.25,0,0 RGB=127,127,127/
&OBST XB=16.575,17,38.25,38.675,0.436363636363636,0.436363636363636 RGB=127,127,127/
&OBST XB=16.575,17,38.675,39.1,0.436363636363636,0.436363636363636 RGB=127,127,127/
&OBST XB=16.575,17,39.1,39.525,0.872727272727273,0.872727272727273 RGB=127,127,127/
&OBST XB=16.575,17,39.525,39.95,0.872727272727273,0.872727272727273 RGB=127,127,127/
&OBST XB=16.575,17,39.95,40.375,1.30909090909091,1.30909090909091 RGB=127,127,127/
&OBST XB=16.575,17,40.375,40.8,1.30909090909091,1.74545454545455 RGB=127,127,127/
&OBST XB=16.575,17,40.8,41.225,1.74545454545455,1.74545454545455 RGB=127,127,127/
&OBST XB=16.575,17,41.225,41.65,1.74545454545455,2.18181818181818 RGB=127,127,127/
&OBST XB=16.575,17,41.65,42.075,2.18181818181818,2.18181818181818 RGB=127,127,127/
&OBST XB=17,17.425,37.825,38.25,0,0 RGB=127,127,127/
&OBST XB=17,17.425,38.25,38.675,0.436363636363636,0.436363636363636 RGB=127,127,127/
&OBST XB=17,17.425,38.675,39.1,0.436363636363636,0.436363636363636 RGB=127,127,127/
&OBST XB=17,17.425,39.1,39.525,0.872727272727273,0.872727272727273 RGB=127,127,127/
&OBST XB=17,17.425,39.525,39.95,0.872727272727273,0.872727272727273 RGB=127,127,127/
&OBST XB=17,17.425,39.95,40.375,1.30909090909091,1.30909090909091 RGB=127,127,127/
&OBST XB=17,17.425,40.375,40.8,1.30909090909091,1.74545454545455 RGB=127,127,127/
&OBST XB=17,17.425,40.8,41.225,1.74545454545455,1.74545454545455 RGB=127,127,127/
&OBST XB=17,17.425,41.225,41.65,1.74545454545455,2.18181818181818 RGB=127,127,127/
&OBST XB=17,17.425,41.65,42.075,2.18181818181818,2.18181818181818 RGB=127,127,127/
&OBST XB=15.725,16.15,38.25,38.25,0,0.436363636363636 RGB=127,127,127/
&OBST XB=15.725,16.15,39.1,39.1,0.436363636363636,0.872727272727273 RGB=127,127,127/
&OBST XB=15.725,16.15,39.95,39.95,0.872727272727273,1.30909090909091 RGB=127,127,127/
&OBST XB=15.725,16.15,42.075,42.075,2.18181818181818,2.61818181818182 RGB=127,127,127/
&OBST XB=16.15,16.575,38.25,38.25,0,0.436363636363636 RGB=127,127,127/
&OBST XB=16.15,16.575,39.1,39.1,0.436363636363636,0.872727272727273 RGB=127,127,127/
&OBST XB=16.15,16.575,39.95,39.95,0.872727272727273,1.30909090909091 RGB=127,127,127/
&OBST XB=16.15,16.575,42.075,42.075,2.18181818181818,2.61818181818182 RGB=127,127,127/
&OBST XB=16.575,17,38.25,38.25,0,0.436363636363636 RGB=127,127,127/
&OBST XB=16.575,17,39.1,39.1,0.436363636363636,0.872727272727273 RGB=127,127,127/
&OBST XB=16.575,17,39.95,39.95,0.872727272727273,1.30909090909091 RGB=127,127,127/
&OBST XB=16.575,17,42.075,42.075,2.18181818181818,2.61818181818182 RGB=127,127,127/
&OBST XB=17,17.425,38.25,38.25,0,0.436363636363636 RGB=127,127,127/
&OBST XB=17,17.425,39.1,39.1,0.436363636363636,0.872727272727273 RGB=127,127,127/
&OBST XB=17,17.425,39.95,39.95,0.872727272727273,1.30909090909091 RGB=127,127,127/
&OBST XB=17,17.425,42.075,42.075,2.18181818181818,2.61818181818182 RGB=127,127,127/
09ae11dec81c426a969a14e959c4d6f7
&OBST XB=14.025,14.45,37.825,38.25,4.36363636363636,4.8 RGB=127,127,127/
&OBST XB=14.025,14.45,38.25,38.675,4.36363636363636,4.36363636363636 RGB=127,127,127/
&OBST XB=14.025,14.45,38.675,39.1,3.92727272727273,4.36363636363636 RGB=127,127,127/
&OBST XB=14.025,14.45,39.1,39.525,3.92727272727273,3.92727272727273 RGB=127,127,127/
&OBST XB=14.025,14.45,39.525,39.95,3.49090909090909,3.92727272727273 RGB=127,127,127/
&OBST XB=14.025,14.45,39.95,40.375,3.49090909090909,3.49090909090909 RGB=127,127,127/
&OBST XB=14.025,14.45,40.375,40.8,3.05454545454545,3.05454545454545 RGB=127,127,127/
&OBST XB=14.025,14.45,40.8,41.225,3.05454545454545,3.05454545454545 RGB=127,127,127/
&OBST XB=14.025,14.45,41.225,41.65,2.61818181818182,2.61818181818182 RGB=127,127,127/
&OBST XB=14.025,14.45,41.65,42.075,2.61818181818182,2.61818181818182 RGB=127,127,127/
&OBST XB=14.45,14.875,37.825,38.25,4.36363636363636,4.8 RGB=127,127,127/
&OBST XB=14.45,14.875,38.25,38.675,4.36363636363636,4.36363636363636 RGB=127,127,127/
&OBST XB=14.45,14.875,38.675,39.1,3.92727272727273,4.36363636363636 RGB=127,127,127/
&OBST XB=14.45,14.875,39.1,39.525,3.92727272727273,3.92727272727273 RGB=127,127,127/
&OBST XB=14.45,14.875,39.525,39.95,3.49090909090909,3.92727272727273 RGB=127,127,127/
&OBST XB=14.45,14.875,39.95,40.375,3.49090909090909,3.49090909090909 RGB=127,127,127/
&OBST XB=14.45,14.875,40.375,40.8,3.05454545454545,3.05454545454545 RGB=127,127,127/
&OBST XB=14.45,14.875,40.8,41.225,3.05454545454545,3.05454545454545 RGB=127,127,127/
&OBST XB=14.45,14.875,41.225,41.65,2.61818181818182,2.61818181818182 RGB=127,127,127/
&OBST XB=14.45,14.875,41.65,42.075,2.61818181818182,2.61818181818182 RGB=127,127,127/
&OBST XB=14.875,15.3,37.825,38.25,4.36363636363636,4.8 RGB=127,127,127/
&OBST XB=14.875,15.3,38.25,38.675,4.36363636363636,4.36363636363636 RGB=127,127,127/
&OBST XB=14.875,15.3,38.675,39.1,3.92727272727273,4.36363636363636 RGB=127,127,127/
&OBST XB=14.875,15.3,39.1,39.525,3.92727272727273,3.92727272727273 RGB=127,127,127/
&OBST XB=14.875,15.3,39.525,39.95,3.49090909090909,3.92727272727273 RGB=127,127,127/
&OBST XB=14.875,15.3,39.95,40.375,3.49090909090909,3.49090909090909 RGB=127,127,127/
&OBST XB=14.875,15.3,40.375,40.8,3.05454545454545,3.05454545454545 RGB=127,127,127/
&OBST XB=14.875,15.3,40.8,41.225,3.05454545454545,3.05454545454545 RGB=127,127,127/
&OBST XB=14.875,15.3,41.225,41.65,2.61818181818182,2.61818181818182 RGB=127,127,127/
&OBST XB=14.875,15.3,41.65,42.075,2.61818181818182,2.61818181818182 RGB=127,127,127/
&OBST XB=14.025,14.45,42.075,42.075,2.18181818181818,2.61818181818182 RGB=127,127,127/
&OBST XB=14.025,14.45,41.225,41.225,2.61818181818182,3.05454545454545 RGB=127,127,127/
&OBST XB=14.025,14.45,40.375,40.375,3.05454545454545,3.49090909090909 RGB=127,127,127/
&OBST XB=14.45,14.875,42.075,42.075,2.18181818181818,2.61818181818182 RGB=127,127,127/
&OBST XB=14.45,14.875,41.225,41.225,2.61818181818182,3.05454545454545 RGB=127,127,127/
&OBST XB=14.45,14.875,40.375,40.375,3.05454545454545,3.49090909090909 RGB=127,127,127/
&OBST XB=14.875,15.3,42.075,42.075,2.18181818181818,2.61818181818182 RGB=127,127,127/
&OBST XB=14.875,15.3,41.225,41.225,2.61818181818182,3.05454545454545 RGB=127,127,127/
&OBST XB=14.875,15.3,40.375,40.375,3.05454545454545,3.49090909090909 RGB=127,127,127/
d4d39d681c9841deacf393ba2c33949b
&OBST XB=-37.4,-36.975,12.325,12.75,2.18181818181818,2.18181818181818 RGB=127,127,127/
&OBST XB=-37.4,-36.975,12.75,13.175,2.18181818181818,2.18181818181818 RGB=127,127,127/
&OBST XB=-37.4,-36.975,13.175,13.6,2.18181818181818,2.18181818181818 RGB=127,127,127/
&OBST XB=-36.975,-36.55,12.325,12.75,2.18181818181818,2.18181818181818 RGB=127,127,127/
&OBST XB=-36.975,-36.55,12.75,13.175,2.18181818181818,2.18181818181818 RGB=127,127,127/
&OBST XB=-36.975,-36.55,13.175,13.6,2.18181818181818,2.18181818181818 RGB=127,127,127/
&OBST XB=-36.55,-36.125,12.325,12.75,1.74545454545455,1.74545454545455 RGB=127,127,127/
&OBST XB=-36.55,-36.125,12.75,13.175,1.74545454545455,1.74545454545455 RGB=127,127,127/
&OBST XB=-36.55,-36.125,13.175,13.6,1.74545454545455,1.74545454545455 RGB=127,127,127/
&OBST XB=-36.125,-35.7,12.325,12.75,1.30909090909091,1.74545454545455 RGB=127,127,127/
&OBST XB=-36.125,-35.7,12.75,13.175,1.30909090909091,1.74545454545455 RGB=127,127,127/
&OBST XB=-36.125,-35.7,13.175,13.6,1.30909090909091,1.74545454545455 RGB=127,127,127/
&OBST XB=-35.7,-35.275,12.325,12.75,1.30909090909091,1.30909090909091 RGB=127,127,127/
&OBST XB=-35.7,-35.275,12.75,13.175,1.30909090909091,1.30909090909091 RGB=127,127,127/
&OBST XB=-35.7,-35.275,13.175,13.6,1.30909090909091,1.30909090909091 RGB=127,127,127/
&OBST XB=-35.275,-34.85,12.325,12.75,0.872727272727273,1.30909090909091 RGB=127,127,127/
&OBST XB=-35.275,-34.85,12.75,13.175,0.872727272727273,1.30909090909091 RGB=127,127,127/
&OBST XB=-35.275,-34.85,13.175,13.6,0.872727272727273,1.30909090909091 RGB=127,127,127/
&OBST XB=-34.85,-34.425,12.325,12.75,0.872727272727273,0.872727272727273 RGB=127,127,127/
&OBST XB=-34.85,-34.425,12.75,13.175,0.872727272727273,0.872727272727273 RGB=127,127,127/
&OBST XB=-34.85,-34.425,13.175,13.6,0.872727272727273,0.872727272727273 RGB=127,127,127/
&OBST XB=-34.425,-34,12.325,12.75,0.436363636363636,0.872727272727273 RGB=127,127,127/
&OBST XB=-34.425,-34,12.75,13.175,0.436363636363636,0.872727272727273 RGB=127,127,127/
&OBST XB=-34.425,-34,13.175,13.6,0.436363636363636,0.872727272727273 RGB=127,127,127/
&OBST XB=-34,-33.575,12.325,12.75,0.436363636363636,0.436363636363636 RGB=127,127,127/
&OBST XB=-34,-33.575,12.75,13.175,0.436363636363636,0.436363636363636 RGB=127,127,127/
&OBST XB=-34,-33.575,13.175,13.6,0.436363636363636,0.436363636363636 RGB=127,127,127/
&OBST XB=-33.575,-33.15,12.325,12.75,0,0 RGB=127,127,127/
&OBST XB=-33.575,-33.15,12.75,13.175,0,0 RGB=127,127,127/
&OBST XB=-33.575,-33.15,13.175,13.6,0,0 RGB=127,127,127/
&OBST XB=-33.575,-33.575,12.325,12.75,0,0.436363636363636 RGB=127,127,127/
&OBST XB=-36.55,-36.55,12.325,12.75,1.74545454545455,2.18181818181818 RGB=127,127,127/
&OBST XB=-37.4,-37.4,12.325,12.75,2.18181818181818,2.61818181818182 RGB=127,127,127/
&OBST XB=-33.575,-33.575,12.75,13.175,0,0.436363636363636 RGB=127,127,127/
&OBST XB=-36.55,-36.55,12.75,13.175,1.74545454545455,2.18181818181818 RGB=127,127,127/
&OBST XB=-37.4,-37.4,12.75,13.175,2.18181818181818,2.61818181818182 RGB=127,127,127/
&OBST XB=-33.575,-33.575,13.175,13.6,0,0.436363636363636 RGB=127,127,127/
&OBST XB=-36.55,-36.55,13.175,13.6,1.74545454545455,2.18181818181818 RGB=127,127,127/
&OBST XB=-37.4,-37.4,13.175,13.6,2.18181818181818,2.61818181818182 RGB=127,127,127/
ca16115bed5f4a819c9e4812ea140f0e
&OBST XB=-37.4,-36.975,10.2,10.625,2.61818181818182,2.61818181818182 RGB=127,127,127/
&OBST XB=-37.4,-36.975,10.625,11.05,2.61818181818182,2.61818181818182 RGB=127,127,127/
&OBST XB=-37.4,-36.975,11.05,11.475,2.61818181818182,2.61818181818182 RGB=127,127,127/
&OBST XB=-36.975,-36.55,10.2,10.625,2.61818181818182,2.61818181818182 RGB=127,127,127/
&OBST XB=-36.975,-36.55,10.625,11.05,2.61818181818182,2.61818181818182 RGB=127,127,127/
&OBST XB=-36.975,-36.55,11.05,11.475,2.61818181818182,2.61818181818182 RGB=127,127,127/
&OBST XB=-36.55,-36.125,10.2,10.625,2.61818181818182,3.05454545454545 RGB=127,127,127/
&OBST XB=-36.55,-36.125,10.625,11.05,2.61818181818182,3.05454545454545 RGB=127,127,127/
&OBST XB=-36.55,-36.125,11.05,11.475,2.61818181818182,3.05454545454545 RGB=127,127,127/
&OBST XB=-36.125,-35.7,10.2,10.625,3.05454545454545,3.05454545454545 RGB=127,127,127/
&OBST XB=-36.125,-35.7,10.625,11.05,3.05454545454545,3.05454545454545 RGB=127,127,127/
&OBST XB=-36.125,-35.7,11.05,11.475,3.05454545454545,3.05454545454545 RGB=127,127,127/
&OBST XB=-35.7,-35.275,10.2,10.625,3.49090909090909,3.49090909090909 RGB=127,127,127/
&OBST XB=-35.7,-35.275,10.625,11.05,3.49090909090909,3.49090909090909 RGB=127,127,127/
&OBST XB=-35.7,-35.275,11.05,11.475,3.49090909090909,3.49090909090909 RGB=127,127,127/
&OBST XB=-35.275,-34.85,10.2,10.625,3.49090909090909,3.49090909090909 RGB=127,127,127/
&OBST XB=-35.275,-34.85,10.625,11.05,3.49090909090909,3.49090909090909 RGB=127,127,127/
&OBST XB=-35.275,-34.85,11.05,11.475,3.49090909090909,3.49090909090909 RGB=127,127,127/
&OBST XB=-34.85,-34.425,10.2,10.625,3.92727272727273,3.92727272727273 RGB=127,127,127/
&OBST XB=-34.85,-34.425,10.625,11.05,3.92727272727273,3.92727272727273 RGB=127,127,127/
&OBST XB=-34.85,-34.425,11.05,11.475,3.92727272727273,3.92727272727273 RGB=127,127,127/
&OBST XB=-34.425,-34,10.2,10.625,3.92727272727273,3.92727272727273 RGB=127,127,127/
&OBST XB=-34.425,-34,10.625,11.05,3.92727272727273,3.92727272727273 RGB=127,127,127/
&OBST XB=-34.425,-34,11.05,11.475,3.92727272727273,3.92727272727273 RGB=127,127,127/
&OBST XB=-34,-33.575,10.2,10.625,4.36363636363636,4.36363636363636 RGB=127,127,127/
&OBST XB=-34,-33.575,10.625,11.05,4.36363636363636,4.36363636363636 RGB=127,127,127/
&OBST XB=-34,-33.575,11.05,11.475,4.36363636363636,4.36363636363636 RGB=127,127,127/
&OBST XB=-33.575,-33.15,10.2,10.625,4.36363636363636,4.8 RGB=127,127,127/
&OBST XB=-33.575,-33.15,10.625,11.05,4.36363636363636,4.8 RGB=127,127,127/
&OBST XB=-33.575,-33.15,11.05,11.475,4.36363636363636,4.8 RGB=127,127,127/
&OBST XB=-37.4,-36.975,10.2,10.625,2.18181818181818,2.61818181818182 RGB=127,127,127/
&OBST XB=-35.7,-35.7,10.2,10.625,3.05454545454545,3.49090909090909 RGB=127,127,127/
&OBST XB=-34.85,-34.85,10.2,10.625,3.49090909090909,3.92727272727273 RGB=127,127,127/
&OBST XB=-34,-34,10.2,10.625,3.92727272727273,4.36363636363636 RGB=127,127,127/
&OBST XB=-37.4,-36.975,10.625,11.05,2.18181818181818,2.61818181818182 RGB=127,127,127/
&OBST XB=-35.7,-35.7,10.625,11.05,3.05454545454545,3.49090909090909 RGB=127,127,127/
&OBST XB=-34.85,-34.85,10.625,11.05,3.49090909090909,3.92727272727273 RGB=127,127,127/
&OBST XB=-34,-34,10.625,11.05,3.92727272727273,4.36363636363636 RGB=127,127,127/
&OBST XB=-37.4,-36.975,11.05,11.475,2.18181818181818,2.61818181818182 RGB=127,127,127/
&OBST XB=-35.7,-35.7,11.05,11.475,3.05454545454545,3.49090909090909 RGB=127,127,127/
&OBST XB=-34.85,-34.85,11.05,11.475,3.49090909090909,3.92727272727273 RGB=127,127,127/
&OBST XB=-34,-34,11.05,11.475,3.92727272727273,4.36363636363636 RGB=127,127,127/
31aadcb1dc984015bcec733c140bc568
&OBST XB=25.5,25.925,-30.6,-30.175,2.18181818181818,2.18181818181818 RGB=127,127,127/
&OBST XB=25.5,25.925,-30.175,-29.75,1.74545454545455,2.18181818181818 RGB=127,127,127/
&OBST XB=25.5,25.925,-29.75,-29.325,1.74545454545455,1.74545454545455 RGB=127,127,127/
&OBST XB=25.5,25.925,-29.325,-28.9,1.30909090909091,1.30909090909091 RGB=127,127,127/
&OBST XB=25.5,25.925,-28.9,-28.475,1.30909090909091,1.30909090909091 RGB=127,127,127/
&OBST XB=25.5,25.925,-28.475,-28.05,0.872727272727273,0.872727272727273 RGB=127,127,127/
&OBST XB=25.5,25.925,-28.05,-27.625,0.436363636363636,0.872727272727273 RGB=127,127,127/
&OBST XB=25.5,25.925,-27.625,-27.2,0.436363636363636,0.436363636363636 RGB=127,127,127/
&OBST XB=25.5,25.925,-27.2,-26.775,0,0 RGB=127,127,127/
&OBST XB=25.925,26.35,-30.6,-30.175,2.18181818181818,2.18181818181818 RGB=127,127,127/
&OBST XB=25.925,26.35,-30.175,-29.75,1.74545454545455,2.18181818181818 RGB=127,127,127/
&OBST XB=25.925,26.35,-29.75,-29.325,1.74545454545455,1.74545454545455 RGB=127,127,127/
&OBST XB=25.925,26.35,-29.325,-28.9,1.30909090909091,1.30909090909091 RGB=127,127,127/
&OBST XB=25.925,26.35,-28.9,-28.475,1.30909090909091,1.30909090909091 RGB=127,127,127/
&OBST XB=25.925,26.35,-28.475,-28.05,0.872727272727273,0.872727272727273 RGB=127,127,127/
&OBST XB=25.925,26.35,-28.05,-27.625,0.436363636363636,0.872727272727273 RGB=127,127,127/
&OBST XB=25.925,26.35,-27.625,-27.2,0.436363636363636,0.436363636363636 RGB=127,127,127/
&OBST XB=25.925,26.35,-27.2,-26.775,0,0 RGB=127,127,127/
&OBST XB=26.35,26.775,-30.6,-30.175,2.18181818181818,2.18181818181818 RGB=127,127,127/
&OBST XB=26.35,26.775,-30.175,-29.75,1.74545454545455,2.18181818181818 RGB=127,127,127/
&OBST XB=26.35,26.775,-29.75,-29.325,1.74545454545455,1.74545454545455 RGB=127,127,127/
&OBST XB=26.35,26.775,-29.325,-28.9,1.30909090909091,1.30909090909091 RGB=127,127,127/
&OBST XB=26.35,26.775,-28.9,-28.475,1.30909090909091,1.30909090909091 RGB=127,127,127/
&OBST XB=26.35,26.775,-28.475,-28.05,0.872727272727273,0.872727272727273 RGB=127,127,127/
&OBST XB=26.35,26.775,-28.05,-27.625,0.436363636363636,0.872727272727273 RGB=127,127,127/
&OBST XB=26.35,26.775,-27.625,-27.2,0.436363636363636,0.436363636363636 RGB=127,127,127/
&OBST XB=26.35,26.775,-27.2,-26.775,0,0 RGB=127,127,127/
&OBST XB=25.5,25.925,-27.2,-27.2,0,0.436363636363636 RGB=127,127,127/
&OBST XB=25.5,25.925,-28.475,-28.475,0.872727272727273,1.30909090909091 RGB=127,127,127/
&OBST XB=25.5,25.925,-29.325,-29.325,1.30909090909091,1.74545454545455 RGB=127,127,127/
&OBST XB=25.5,25.925,-30.6,-30.6,2.18181818181818,2.61818181818182 RGB=127,127,127/
&OBST XB=25.925,26.35,-27.2,-27.2,0,0.436363636363636 RGB=127,127,127/
&OBST XB=25.925,26.35,-28.475,-28.475,0.872727272727273,1.30909090909091 RGB=127,127,127/
&OBST XB=25.925,26.35,-29.325,-29.325,1.30909090909091,1.74545454545455 RGB=127,127,127/
&OBST XB=25.925,26.35,-30.6,-30.6,2.18181818181818,2.61818181818182 RGB=127,127,127/
&OBST XB=26.35,26.775,-27.2,-27.2,0,0.436363636363636 RGB=127,127,127/
&OBST XB=26.35,26.775,-28.475,-28.475,0.872727272727273,1.30909090909091 RGB=127,127,127/
&OBST XB=26.35,26.775,-29.325,-29.325,1.30909090909091,1.74545454545455 RGB=127,127,127/
&OBST XB=26.35,26.775,-30.6,-30.6,2.18181818181818,2.61818181818182 RGB=127,127,127/
951a343c11e444c38a2cebb5366e62eb
&OBST XB=27.2,27.625,-30.6,-30.175,2.61818181818182,2.61818181818182 RGB=127,127,127/
&OBST XB=27.2,27.625,-30.175,-29.75,2.61818181818182,2.61818181818182 RGB=127,127,127/
&OBST XB=27.2,27.625,-29.75,-29.325,3.05454545454545,3.05454545454545 RGB=127,127,127/
&OBST XB=27.2,27.625,-29.325,-28.9,3.05454545454545,3.49090909090909 RGB=127,127,127/
&OBST XB=27.2,27.625,-28.9,-28.475,3.49090909090909,3.49090909090909 RGB=127,127,127/
&OBST XB=27.2,27.625,-28.475,-28.05,3.92727272727273,3.92727272727273 RGB=127,127,127/
&OBST XB=27.2,27.625,-28.05,-27.625,3.92727272727273,3.92727272727273 RGB=127,127,127/
&OBST XB=27.2,27.625,-27.625,-27.2,4.36363636363636,4.36363636363636 RGB=127,127,127/
&OBST XB=27.2,27.625,-27.2,-26.775,4.36363636363636,4.8 RGB=127,127,127/
&OBST XB=27.625,28.05,-30.6,-30.175,2.61818181818182,2.61818181818182 RGB=127,127,127/
&OBST XB=27.625,28.05,-30.175,-29.75,2.61818181818182,2.61818181818182 RGB=127,127,127/
&OBST XB=27.625,28.05,-29.75,-29.325,3.05454545454545,3.05454545454545 RGB=127,127,127/
&OBST XB=27.625,28.05,-29.325,-28.9,3.05454545454545,3.49090909090909 RGB=127,127,127/
&OBST XB=27.625,28.05,-28.9,-28.475,3.49090909090909,3.49090909090909 RGB=127,127,127/
&OBST XB=27.625,28.05,-28.475,-28.05,3.92727272727273,3.92727272727273 RGB=127,127,127/
&OBST XB=27.625,28.05,-28.05,-27.625,3.92727272727273,3.92727272727273 RGB=127,127,127/
&OBST XB=27.625,28.05,-27.625,-27.2,4.36363636363636,4.36363636363636 RGB=127,127,127/
&OBST XB=27.625,28.05,-27.2,-26.775,4.36363636363636,4.8 RGB=127,127,127/